tests/data/state_estimation/dummy-test-line-into-itself-minimal/input.json
{
  "version": "1.0",
  "type": "input",
  "is_batch": false,
  "attributes": {},
  "data": {
    "node": [
      {
        "id": 1,
        "u_rated": 10e3
      }
    ],
    "line": [
      {
        "id": 5,
        "from_node": 1,
        "to_node": 1,
        "from_status": 0,
        "to_status": 0,
        "r1": 1000000.0,
        "x1": 1000000.0,
        "c1": 2.0e-5,
        "tan1": 0.1,
        "r0": 1000000.0,
        "x0": 1000000.0,
        "c0": 1.0e-6,
        "tan0": 0.2,
        "extra": "Line connected to itself (see readme)"
      }
    ],
    "shunt": [
      {
        "id": 7,
        "node": 1,
        "status": 0,
        "g1": 6.283185307179587e-4,
        "b1": 6.283185307179587e-3,
        "g0": 6.283185307179587e-5,
        "b0": 3.141592653589793e-4,
        "extra": "The shunt that mimics the line into itself and acts as a benchmark (see readme)"
      }
    ],
    "source": [
      {
        "id": 10,
        "node": 1,
        "status": 1,
        "u_ref": 1.05,
        "sk": 1e12
      }
    ],
    "sym_voltage_sensor": [
      {
        "id": 13,
        "measured_object": 1,
        "u_measured": 6062.1931942119563,
        "u_sigma": 0.1,
        "u_angle_measured": -1.4832085023115637e-06,
        "u_angle_sigma": 0.1
      }
    ],
    "asym_power_sensor": [
      {
        "id": 16,
        "measured_object": 5,
        "measured_terminal_type": 0,
        "power_sigma": 7.071067811865475,
        "p_measured": [1154.0, 1153.0, 1155.0],
        "q_measured": [-11540.0, -11550.0, -11550.0],
        "extra": "The power sensor on the line into itself on the source node (see readme)"
      },
      {
        "id": 18,
        "measured_object": 7,
        "measured_terminal_type": 3,
        "power_sigma": 10.0,
        "p_measured": [2308.0, 2306.0, 2310.0],
        "q_measured": [-23080.0, -23100.0, -23100.0],
        "extra": "The power sensor on the benchmark shunt on the source node (see readme)"
      }
    ]
  }
}