tests/data/state_estimation/dummy-test-line-into-itself-minimal/asym_output_batch.json
{
  "version": "1.0",
  "type": "asym_output",
  "is_batch": true,
  "attributes": {},
  "data": [
    {
      "node": [
        {"id": 1, "energized": 1, "u_pu": [0.58821464795138156, 0.58821846445678072, 0.58821887964552899], "u": [3396.0588533601108, 3396.0808879643068, 3396.0832850576626], "u_angle": [-1.2055711284225968e-06, -2.0943919301633787, 2.0943909358065489], "p": [7246.5319925055337, 7246.6179548689861, 7246.6478496385207], "q": [-72465.343007128598, -72466.265316078352, -72466.369646923151]}
      ],
      "line": [
        {"id": 5, "energized": 0, "p_from": [0, 0, 0], "q_from": [0, 0, 0], "i_from": [0, 0, 0], "s_from": [0, 0, 0], "p_to": [0, 0, 0], "q_to": [0, 0, 0], "i_to": [0, 0, 0], "s_to": [0, 0, 0]}
      ],
      "shunt": [
        {"id": 7, "energized": 1, "p": [7246.5319925055337, 7246.6179548689861, 7246.6478496385207], "q": [-72465.343007128598, -72466.265316078352, -72466.369646923151], "i": [21.444495316863971, 21.44462893097084, 21.444645238855401], "s": [72826.768176675323, 72827.694461956489, 72827.80124966822], "pf": [0.099503687640314989, 0.099503602419467665, 0.099503867002596544]}
      ],
      "source": [
        {"id": 10, "energized": 1, "p": [7246.5319925055337, 7246.6179548689861, 7246.6478496385207], "q": [-72465.343007128598, -72466.265316078352, -72466.369646923151], "i": [21.444495316863964, 21.44462893097084, 21.444645238855404], "s": [72826.768176675323, 72827.694461956489, 72827.80124966822], "pf": [0.099503687640314989, 0.099503602419467665, 0.099503867002596544]}
      ],
      "asym_power_sensor": [
        {"id": 16, "energized": 0, "p_residual": [0, 0, 0], "q_residual": [0, 0, 0]},
        {"id": 18, "energized": 1, "p_residual": [-4938.5319925055337, -4940.6179548689861, -4936.6478496385207], "q_residual": [49385.343007128606, 49366.265316078345, 49366.369646923151]}
      ],
      "sym_voltage_sensor": [
        {"id": 13, "energized": 1, "u_residual": [103.9500191976795, 103.92798459348381, 103.92558750012803], "u_angle_residual": [-2.7763737388896684e-07, 2.0943904469548764, -2.0943924190150511]}
      ]
    },
    {
      "node": [
        {"id": 1, "energized": 1, "u_pu": [0.58821464795138156, 0.58821846445678072, 0.58821887964552899], "u": [3396.0588533601108, 3396.0808879643068, 3396.0832850576626], "u_angle": [-1.2055711284225968e-06, -2.0943919301633787, 2.0943909358065489], "p": [7246.5319925055337, 7246.6179548689861, 7246.6478496385207], "q": [-72465.343007128598, -72466.265316078352, -72466.369646923151]}
      ],
      "line": [
        {"id": 5, "energized": 1, "p_from": [3623.2659962527669, 3623.308977434493, 3623.3239248192604], "q_from": [-36232.671503564299, -36233.132658039176, -36233.184823461575], "i_from": [10.722247658431986, 10.72231446548542, 10.7223226194277], "s_from": [36413.384088337662, 36413.847230978245, 36413.90062483411], "p_to": [3623.2659962527669, 3623.308977434493, 3623.3239248192604], "q_to": [-36232.671503564299, -36233.132658039176, -36233.184823461575], "i_to": [10.722247658431986, 10.72231446548542, 10.7223226194277], "s_to": [36413.384088337662, 36413.847230978245, 36413.90062483411]}
      ],
      "shunt": [
        {"id": 7, "energized": 0, "p": [0, 0, 0], "q": [0, 0, 0], "i": [0, 0, 0], "s": [0, 0, 0], "pf": [0, 0, 0]}
      ],
      "source": [
        {"id": 10, "energized": 1, "p": [7246.5319925055337, 7246.6179548689861, 7246.6478496385207], "q": [-72465.343007128598, -72466.265316078352, -72466.369646923151], "i": [21.444495316863964, 21.44462893097084, 21.444645238855404], "s": [72826.768176675323, 72827.694461956489, 72827.80124966822], "pf": [0.099503687640314989, 0.099503602419467665, 0.099503867002596544]}
      ],
      "asym_power_sensor": [
        {"id": 16, "energized": 1, "p_residual": [-2469.2659962527669, -2470.308977434493, -2468.3239248192604], "q_residual": [24692.671503564303, 24683.132658039172, 24683.184823461575]},
        {"id": 18, "energized": 0, "p_residual": [2308, 2306, 2310], "q_residual": [-23080, -23100, -23100]}
      ],
      "sym_voltage_sensor": [
        {"id": 13, "energized": 1, "u_residual": [103.9500191976795, 103.92798459348381, 103.92558750012803], "u_angle_residual": [-2.7763737388896684e-07, 2.0943904469548764, -2.0943924190150511]}
      ]
    }
  ]
}