tests/data/state_estimation/dummy-test-line-into-itself-minimal/sym_output_batch.json
{
  "version": "1.0",
  "type": "sym_output",
  "is_batch": true,
  "attributes": {},
  "data": [
    {
      "node": [
        {"id": 1, "energized": 1, "u_pu": 0.58256520422943536, "u": 5825.652042294354, "u_angle": -1.4832085023115635e-06, "p": 21324.013604963937, "q": -213240.13604963929}
      ],
      "line": [
        {"id": 5, "energized": 0, "p_from": 0, "q_from": 0, "i_from": 0, "s_from": 0, "p_to": 0, "q_to": 0, "i_to": 0, "s_to": 0}
      ],
      "shunt": [
        {"id": 7, "energized": 1, "p": 21324.013604963937, "q": -213240.13604963929, "i": 21.238530729355634, "s": 214303.68447297718, "pf": 0.099503719020998943}
      ],
      "source": [
        {"id": 10, "energized": 1, "p": 21324.013604963937, "q": -213240.13604963929, "i": 21.238530729355627, "s": 214303.68447297718, "pf": 0.099503719020998943}
      ],
      "asym_power_sensor": [
        {"id": 16, "energized": 0, "p_residual": 0, "q_residual": 0},
        {"id": 17, "energized": 1, "p_residual": -14400.013604963937, "q_residual": 143960.13604963932}
      ],
      "sym_voltage_sensor": [
        {"id": 13, "energized": 1, "u_residual": 236.54115191760306, "u_angle_residual": -2.1175823681357508e-22}
      ]
    },
    {
      "node": [
        {"id": 1, "energized": 1, "u_pu": 0.58256520422943536, "u": 5825.652042294354, "u_angle": -1.4832085023115635e-06, "p": 21324.013604963937, "q": -213240.13604963929}
      ],
      "line": [
        {"id": 5, "energized": 1, "p_from": 10662.006802481968, "q_from": -106620.06802481964, "i_from": 10.619265364677817, "s_from": 107151.84223648859, "p_to": 10662.006802481968, "q_to": -106620.06802481964, "i_to": 10.619265364677817, "s_to": 107151.84223648859}
      ],
      "shunt": [
        {"id": 7, "energized": 0, "p": 0, "q": 0, "i": 0, "s": 0, "pf": 0}
      ],
      "source": [
        {"id": 10, "energized": 1, "p": 21324.013604963937, "q": -213240.13604963929, "i": 21.238530729355627, "s": 214303.68447297718, "pf": 0.099503719020998943}
      ],
      "asym_power_sensor": [
        {"id": 16, "energized": 1, "p_residual": -7200.0068024819684, "q_residual": 71980.068024819659},
        {"id": 17, "energized": 0, "p_residual": 0, "q_residual": 0}
      ],
      "sym_voltage_sensor": [
        {"id": 13, "energized": 1, "u_residual": 236.54115191760306, "u_angle_residual": -2.1175823681357508e-22}
      ]
    }
  ]
}
